306 Power Project -kimi k3-v4/rev2/results/phase1_bus_results.csv
CaseID,Bus,Vbase_kV,V_pu,V_kV,Ang_deg,P_MW,Q_MVAr
P1A,B01,22.00,1.000000,22.00,7.4747,354.0000,19.9250
P1A,B02,230.00,1.000353,230.08,1.1402,0.0000,-0.0000
P1A,B03,230.00,1.000000,230.00,0.0000,-340.9133,30.1167
P1A,B11,6.60,0.932820,6.16,4.5615,-12.0000,-5.0000
P1B,B01,22.00,1.000000,22.00,7.6064,360.0000,20.5748
P1B,B02,230.00,1.000339,230.08,1.1603,-0.0000,0.0000
P1B,B03,230.00,1.000000,230.00,0.0000,-346.8757,31.0503
P1B,B11,6.60,0.932820,6.16,4.6932,-12.0000,-5.0000
P1C,B01,22.00,1.000000,22.00,7.3594,354.0000,17.3075
P1C,B02,230.00,1.000226,230.05,1.1410,0.0000,0.0000
P1C,B03,230.00,1.000000,230.00,0.0000,-340.8902,32.3136
P1C,B11,6.60,0.943075,6.22,2.9202,-12.0000,-5.0000
P1D,B01,22.00,1.000000,22.00,8.0220,354.0000,19.9822
P1D,B02,230.00,1.000335,230.08,1.6874,0.0000,0.0000
P1D,B03,230.00,1.000000,230.00,0.0000,-340.6165,33.3152
P1D,B11,6.60,0.932820,6.16,5.1088,-12.0000,-5.0000
P1E,B01,22.00,1.000000,22.00,7.1466,354.0000,20.0073
P1E,B02,230.00,1.000327,230.08,0.8119,0.0000,0.0000
P1E,B03,230.00,1.000000,230.00,0.0000,-341.0913,28.0822
P1E,B11,6.60,0.932820,6.16,4.2334,-12.0000,-5.0000
P1F,B01,22.00,1.000000,22.00,7.4656,354.0000,19.9881
P1F,B02,230.00,1.000333,230.08,1.1310,0.0000,-0.0000
P1F,B03,230.00,1.000000,230.00,0.0000,-340.9257,30.0623
P1F,B11,6.60,0.932820,6.16,4.5524,-12.0000,-5.0000
P1G,B01,22.00,1.000000,22.00,7.4838,354.0000,19.8620
P1G,B02,230.00,1.000373,230.09,1.1494,0.0000,0.0000
P1G,B03,230.00,1.000000,230.00,0.0000,-340.9009,30.1709
P1G,B11,6.60,0.932820,6.16,4.5706,-12.0000,-5.0000
